Version 4
SHEET 1 1352 1188
WIRE 1008 112 896 112
WIRE 1072 112 1008 112
WIRE 896 144 896 112
WIRE 896 256 896 224
WIRE 96 288 -16 288
WIRE 368 288 288 288
WIRE 480 288 368 288
WIRE 96 304 96 288
WIRE -16 320 -16 288
WIRE 368 320 368 288
WIRE 1056 336 944 336
WIRE 1120 336 1056 336
WIRE 944 368 944 336
WIRE 208 384 208 288
WIRE 208 384 176 384
WIRE -16 416 -16 400
WIRE 96 432 96 384
WIRE 144 432 96 432
WIRE 176 432 176 384
WIRE 176 432 144 432
WIRE 368 464 368 400
WIRE 944 480 944 448
WIRE 1040 624 928 624
WIRE 1104 624 1040 624
WIRE -496 656 -496 624
WIRE 928 656 928 624
WIRE 1104 656 1104 624
WIRE 928 768 928 736
WIRE -496 784 -496 736
WIRE 1056 816 928 816
WIRE 1104 816 1056 816
WIRE 928 848 928 816
WIRE 112 864 -160 864
WIRE 176 864 112 864
WIRE 480 864 176 864
WIRE 560 864 480 864
WIRE 112 880 112 864
WIRE 560 880 560 864
WIRE 64 896 0 896
WIRE 480 896 480 864
WIRE 688 896 608 896
WIRE 176 912 176 864
WIRE 64 944 16 944
WIRE 640 944 608 944
WIRE 16 960 16 944
WIRE 112 960 112 944
WIRE 480 960 464 960
WIRE 560 960 480 960
WIRE 576 960 560 960
WIRE 640 960 640 944
WIRE 928 960 928 928
WIRE -160 976 -160 864
WIRE 112 976 112 960
WIRE 176 976 176 960
WIRE 176 976 112 976
WIRE 112 992 112 976
WIRE 160 992 112 992
WIRE 192 992 160 992
WIRE 352 992 272 992
WIRE 512 992 432 992
WIRE 560 992 560 960
WIRE 560 992 512 992
WIRE 560 1024 560 992
WIRE 560 1024 480 1024
WIRE 112 1040 112 992
WIRE 208 1040 112 1040
WIRE 560 1040 560 1024
WIRE 64 1056 -16 1056
WIRE 688 1056 608 1056
WIRE 208 1072 208 1040
WIRE 480 1072 480 1024
WIRE 64 1104 16 1104
WIRE 672 1104 608 1104
WIRE 16 1136 16 1104
WIRE 672 1152 672 1104
WIRE -160 1168 -160 1056
WIRE 112 1168 112 1120
WIRE 112 1168 -160 1168
WIRE 208 1168 208 1136
WIRE 208 1168 112 1168
WIRE 480 1168 480 1136
WIRE 480 1168 208 1168
WIRE 560 1168 560 1120
WIRE 560 1168 480 1168
FLAG 368 464 0
FLAG 144 432 fb
FLAG 368 288 Vsw
FLAG 0 896 pwms1
FLAG -16 1056 pwms2
FLAG 688 896 pwms3
FLAG 688 1056 pwms4
FLAG 16 960 0
FLAG 16 1136 0
FLAG 672 1152 0
FLAG 640 960 0
FLAG 928 768 0
FLAG 928 960 0
FLAG 1040 624 pwms4
FLAG 1056 816 pwms3
FLAG 896 256 0
FLAG 1008 112 pwms1
FLAG 944 480 0
FLAG 1056 336 pwms2
FLAG 112 1168 0
FLAG 144 592 0
FLAG -16 416 0
FLAG -496 784 0
FLAG -496 624 sin
FLAG 160 992 x+
FLAG 512 992 x-
SYMBOL bv 368 304 R0
SYMATTR InstName B1
SYMATTR Value V={if(V(fb)>I(L1)-V(sin), 5, -5)}
SYMBOL res 304 272 R90
WINDOW 0 0 56 VBottom 2
WINDOW 3 32 56 VTop 2
SYMATTR InstName R1
SYMATTR Value 576k
SYMBOL res 80 288 R0
SYMATTR InstName R2
SYMATTR Value 100k
SYMBOL ind 176 1008 R270
WINDOW 0 32 56 VTop 2
WINDOW 3 5 56 VBottom 2
SYMATTR InstName L1
SYMATTR Value 500µ
SYMBOL voltage 336 992 R270
WINDOW 0 32 56 VTop 2
WINDOW 3 -32 56 VBottom 2
WINDOW 123 0 0 Left 0
WINDOW 39 0 0 Left 0
SYMATTR InstName V1
SYMATTR Value SINE(0 169.71 60)
SYMBOL sw 112 976 M180
SYMATTR InstName S1
SYMATTR Value SWIdeal
SYMBOL sw 112 1136 M180
SYMATTR InstName S2
SYMATTR Value SWIdeal
SYMBOL sw 560 976 R180
SYMATTR InstName s3
SYMATTR Value SwIdeal
SYMBOL sw 560 1136 R180
SYMATTR InstName S4
SYMATTR Value SWIdeal
SYMBOL voltage -160 960 R0
WINDOW 123 0 0 Left 0
WINDOW 39 0 0 Left 0
SYMATTR InstName V4
SYMATTR Value 200
SYMBOL bv 928 640 R0
SYMATTR InstName B2
SYMATTR Value V={if(V(sin)>0,1,0)}
SYMBOL bv 928 832 R0
SYMATTR InstName B3
SYMATTR Value V={if(V(sin)<0,1,0)}
SYMBOL bv 896 128 R0
SYMATTR InstName B4
SYMATTR Value V=limit(0,V(Vsw),V(pwms4))
SYMBOL bv 944 352 R0
SYMATTR InstName B5
SYMATTR Value V=limit(0,(1-V(Vsw)),V(pwms3))
SYMBOL diode 496 960 R180
WINDOW 0 24 64 Left 2
WINDOW 3 24 0 Left 2
SYMATTR InstName D2
SYMBOL diode 496 1136 R180
WINDOW 0 24 64 Left 2
WINDOW 3 24 0 Left 2
SYMATTR InstName D3
SYMBOL diode 224 1136 R180
WINDOW 0 24 64 Left 2
WINDOW 3 24 0 Left 2
SYMATTR InstName D4
SYMBOL voltage -496 640 R0
WINDOW 123 0 0 Left 0
WINDOW 39 0 0 Left 0
SYMATTR InstName V3
SYMATTR Value SINE(0 9.9 60)
SYMBOL res 128 416 R0
SYMATTR InstName 1
SYMATTR Value 100k
SYMBOL voltage 144 496 R0
WINDOW 123 0 0 Left 0
WINDOW 39 0 0 Left 0
SYMATTR InstName V5
SYMATTR Value -5
SYMBOL voltage -16 304 R0
WINDOW 123 0 0 Left 0
WINDOW 39 0 0 Left 0
SYMATTR InstName V6
SYMATTR Value 5
SYMBOL diode 192 976 R180
WINDOW 0 24 64 Left 2
WINDOW 3 24 0 Left 2
SYMATTR InstName D1
TEXT -472 120 Left 2 !.tran 0 50m 0 1u uic
TEXT -480 144 Left 2 !.ic V(Vsw)=0
TEXT -472 176 Left 2 !.model D D(Ron=0)
TEXT -472 200 Left 2 !.model SWIdeal SW(Ron=0.1m Roff=10Meg Vt=0.1 Vh=0.1)
